units(length='cm', time='s', quantity='mol', act_energy='kcal/mol')

ideal_gas(name='gas',
          elements="H D T C Ci O Oi N Ne Ar He Si S Cl X",
          species="""N2         Ar         He         Ne         CH4(2)
                     O2(3)      H2(4)      H2O(10)    CO2(11)    CO(13)
                     OH(D)(23)  H(27)      HO2(63)""",
          transport='Mix',
          initial_state=state(temperature=300.0, pressure=OneAtm))

ideal_interface(name='surface1',
                elements="H D T C Ci O Oi N Ne Ar He Si S Cl X",
                species="""X(1)       HX(5)      OX(6)      CH3X(7)
                          HOX(8)     H2OX(9)    CO2X(12)   OCX(14)
                          CX(15)     CH2X(16)   CHX(17)    CH4X(18)
                          HO2X(24)   CHOX(44)   HOCOX(46)  COX(51)
                          H2X(52)""",
                site_density=2.72e-09,
                phases="gas",
          reactions='all',
                initial_state=state(temperature=300.0, pressure=OneAtm))

#-------------------------------------------------------------------------------
# Element data
#-------------------------------------------------------------------------------

element(symbol=u'X', atomic_mass=195.083)
element(symbol=u'Ci', atomic_mass=13.003)
element(symbol=u'D', atomic_mass=2.014)
element(symbol=u'Oi', atomic_mass=18.0)
element(symbol=u'T', atomic_mass=3.016)
#-------------------------------------------------------------------------------
# Species data
#-------------------------------------------------------------------------------

species(name=u'N2',
        atoms='N:2',
        thermo=(NASA([200.00, 1000.00],
                     [ 3.53101000E+00, -1.23661000E-04, -5.02999000E-07,
                       2.43531000E-09, -1.40881000E-12, -1.04698000E+03,
                       2.96747000E+00]),
                NASA([1000.00, 6000.00],
                     [ 2.95258000E+00,  1.39690000E-03, -4.92632000E-07,
                       7.86010000E-11, -4.60755000E-15, -9.23949000E+02,
                       5.87189000E+00])),
        transport=gas_transport(geom='linear',
                                diam=3.621,
                                well_depth=97.53,
                                polar=1.76,
                                rot_relax=4.0))

species(name=u'Ar',
        atoms='Ar:1',
        thermo=(NASA([200.00, 1000.00],
                     [ 2.50000000E+00,  0.00000000E+00,  0.00000000E+00,
                       0.00000000E+00,  0.00000000E+00, -7.45375000E+02,
                       4.37967000E+00]),
                NASA([1000.00, 6000.00],
                     [ 2.50000000E+00,  0.00000000E+00,  0.00000000E+00,
                       0.00000000E+00,  0.00000000E+00, -7.45375000E+02,
                       4.37967000E+00])),
        transport=gas_transport(geom='atom',
                                diam=3.33,
                                well_depth=136.501))

species(name=u'He',
        atoms='He:1',
        thermo=(NASA([200.00, 1000.00],
                     [ 2.50000000E+00,  0.00000000E+00,  0.00000000E+00,
                       0.00000000E+00,  0.00000000E+00, -7.45375000E+02,
                       9.28724000E-01]),
                NASA([1000.00, 6000.00],
                     [ 2.50000000E+00,  0.00000000E+00,  0.00000000E+00,
                       0.00000000E+00,  0.00000000E+00, -7.45375000E+02,
                       9.28724000E-01])),
        transport=gas_transport(geom='atom',
                                diam=2.576,
                                well_depth=10.2))

species(name=u'Ne',
        atoms='Ne:1',
        thermo=(NASA([200.00, 1000.00],
                     [ 2.50000000E+00,  0.00000000E+00,  0.00000000E+00,
                       0.00000000E+00,  0.00000000E+00, -7.45375000E+02,
                       3.35532000E+00]),
                NASA([1000.00, 6000.00],
                     [ 2.50000000E+00,  0.00000000E+00,  0.00000000E+00,
                       0.00000000E+00,  0.00000000E+00, -7.45375000E+02,
                       3.35532000E+00])),
        transport=gas_transport(geom='atom',
                                diam=3.758,
                                well_depth=148.6))

species(name=u'CH4(2)',
        atoms='H:4 C:1',
        thermo=(NASA([100.00, 1084.12],
                     [ 4.20541283E+00, -5.35554587E-03,  2.51122331E-05,
                      -2.13761692E-08,  5.97519324E-12, -1.01619432E+04,
                      -9.21270597E-01]),
                NASA([1084.12, 5000.00],
                     [ 9.08279610E-01,  1.14540629E-02, -4.57172537E-06,
                       8.29188673E-10, -5.66312440E-14, -9.71998052E+03,
                       1.39930158E+01])),
        transport=gas_transport(geom='nonlinear',
                                diam=3.746,
                                well_depth=141.4,
                                polar=2.6,
                                rot_relax=13.0))

species(name=u'O2(3)',
        atoms='O:2',
        thermo=(NASA([100.00, 1074.55],
                     [ 3.53732243E+00, -1.21571647E-03,  5.31620254E-06,
                      -4.89446434E-09,  1.45846258E-12, -1.03858849E+03,
                       4.68368183E+00]),
                NASA([1074.55, 5000.00],
                     [ 3.15382081E+00,  1.67804371E-03, -7.69974236E-07,
                       1.51275462E-10, -1.08782414E-14, -1.04081728E+03,
                       6.16755832E+00])),
        transport=gas_transport(geom='linear',
                                diam=3.467,
                                well_depth=106.7))

species(name=u'H2(4)',
        atoms='H:2',
        thermo=(NASA([100.00, 1959.07],
                     [ 3.43536393E+00,  2.12711953E-04, -2.78628671E-07,
                       3.40270013E-10, -7.76039045E-14, -1.03135983E+03,
                      -3.90841661E+00]),
                NASA([1959.07, 5000.00],
                     [ 2.78818509E+00,  5.87615921E-04,  1.59022130E-07,
                      -5.52762536E-11,  4.34328120E-15, -5.96155632E+02,
                       1.12618494E-01])),
        transport=gas_transport(geom='linear',
                                diam=2.833,
                                well_depth=59.7))

species(name=u'H2O(10)',
        atoms='H:2 O:1',
        thermo=(NASA([100.00, 1130.24],
                     [ 4.05763557E+00, -7.87932878E-04,  2.90876518E-06,
                      -1.47517698E-09,  2.12838441E-13, -3.02815866E+04,
                      -3.11363105E-01]),
                NASA([1130.24, 5000.00],
                     [ 2.84325231E+00,  2.75108244E-03, -7.81029811E-07,
                       1.07243254E-10, -5.79389106E-15, -2.99586136E+04,
                       5.91040933E+00])),
        transport=gas_transport(geom='nonlinear',
                                diam=2.641,
                                well_depth=809.102,
                                polar=1.76,
                                rot_relax=4.0))

species(name=u'CO2(11)',
        atoms='C:1 O:2',
        thermo=(NASA([100.00, 978.22],
                     [ 3.28084453E+00,  2.50185640E-03,  8.08192142E-06,
                      -1.20510369E-08,  4.66542684E-12, -4.84008303E+04,
                       6.00081438E+00]),
                NASA([978.22, 5000.00],
                     [ 4.67427416E+00,  2.60962879E-03, -9.85683184E-07,
                       1.95712276E-10, -1.49834931E-14, -4.89512168E+04,
                      -2.11077406E+00])),
        transport=gas_transport(geom='linear',
                                diam=3.941,
                                well_depth=195.201))

species(name=u'CO(13)',
        atoms='C:1 O:1',
        thermo=(NASA([100.00, 1571.65],
                     [ 3.56837950E+00, -8.52120978E-04,  2.48916580E-06,
                      -1.56329920E-09,  3.13591992E-13, -1.42842549E+04,
                       3.57912359E+00]),
                NASA([1571.65, 5000.00],
                     [ 2.91308000E+00,  1.64655944E-03, -6.88605521E-07,
                       1.21035372E-10, -7.84002800E-15, -1.41808916E+04,
                       6.71038000E+00])),
        transport=gas_transport(geom='linear',
                                diam=3.69,
                                well_depth=91.7,
                                polar=1.76,
                                rot_relax=4.0))

species(name=u'OH(D)(23)',
        atoms='H:1 O:1',
        thermo=(NASA([100.00, 1145.76],
                     [ 3.51456841E+00,  2.92732126E-05, -5.32149895E-07,
                       1.01947438E-09, -3.85939087E-13,  3.41425418E+03,
                       2.10434749E+00]),
                NASA([1145.76, 5000.00],
                     [ 3.07193710E+00,  6.04020067E-04, -1.39807196E-08,
                      -2.13440522E-11,  2.48061130E-15,  3.57938798E+03,
                       4.57801549E+00])),
        transport=gas_transport(geom='linear',
                                diam=2.75,
                                well_depth=80.0))

species(name=u'H(27)',
        atoms='H:1',
        thermo=(NASA([100.00, 4879.80],
                     [ 2.50000000E+00, -3.01680531E-12,  3.74582141E-15,
                      -1.50856878E-18,  1.86626471E-22,  2.54742178E+04,
                      -4.44972899E-01]),
                NASA([4879.80, 5000.00],
                     [ 4.28461071E+00, -1.45494649E-03,  4.44804306E-07,
                      -6.04359642E-11,  3.07921551E-15,  2.37230923E+04,
                      -1.18931307E+01])),
        transport=gas_transport(geom='atom',
                                diam=2.05,
                                well_depth=145.0))

species(name=u'HO2(63)',
        atoms='H:1 O:2',
        thermo=(NASA([100.00, 1000.23],
                     [ 4.02426386E+00, -1.64555785E-03,  1.05113003E-05,
                      -1.06996271E-08,  3.49400100E-12,  2.34739714E+02,
                       4.70055409E+00]),
                NASA([1000.23, 5000.00],
                     [ 3.62864819E+00,  3.05393235E-03, -1.21134045E-06,
                       2.29646926E-10, -1.65068070E-14,  1.57940248E+02,
                       5.82973605E+00])),
        transport=gas_transport(geom='nonlinear',
                                diam=3.458,
                                well_depth=107.4,
                                rot_relax=1.0))

species(name=u'X(1)',
        atoms='X:1',
        thermo=(NASA([100.00, 1554.81],
                     [ 7.10129478E-03, -4.25609798E-05,  8.98507278E-08,
                      -7.80169595E-11,  2.32458299E-14, -8.76096726E-01,
                      -3.11207473E-02]),
                NASA([1554.81, 5000.00],
                     [ 1.60302910E-01, -2.52239722E-04,  1.14183461E-07,
                      -1.21476333E-11,  3.85825979E-16, -7.08116648E+01,
                      -9.09545048E-01])))

species(name=u'HX(5)',
        atoms='H:1 X:1',
        thermo=(NASA([100.00, 952.90],
                     [-3.80945029E-01,  5.47203694E-03,  2.61004478E-06,
                      -9.65086662E-09,  4.64002394E-12, -3.37659667E+03,
                       1.01718287E+00]),
                NASA([952.90, 5000.00],
                     [ 2.80332808E+00, -5.40928806E-04,  4.99439071E-07,
                      -7.54799604E-11,  3.06635509E-15, -4.31731700E+03,
                      -1.59432943E+01])))

species(name=u'OX(6)',
        atoms='X:1 O:1',
        thermo=(NASA([100.00, 888.26],
                     [-7.59013067E-01,  1.89868498E-02, -3.82473745E-05,
                       3.43558395E-08, -1.13974372E-11, -1.72389494E+04,
                       1.76017396E+00]),
                NASA([888.26, 5000.00],
                     [ 1.89893619E+00,  2.03295425E-03, -1.19976574E-06,
                       2.32680659E-10, -1.53508282E-14, -1.75144954E+04,
                      -9.64104080E+00])))

species(name=u'CH3X(7)',
        atoms='H:3 C:1 X:1',
        thermo=(NASA([100.00, 848.32],
                     [-1.21088636E+00,  2.92388273E-02, -4.49001550E-05,
                       3.85995644E-08, -1.30354077E-11, -6.12022360E+03,
                       6.80933216E+00]),
                NASA([848.32, 5000.00],
                     [ 1.62287004E+00,  1.12987964E-02, -5.08321081E-06,
                       9.46843720E-10, -6.42894124E-14, -6.43627260E+03,
                      -5.42479488E+00])))

species(name=u'HOX(8)',
        atoms='H:1 O:1 X:1',
        thermo=(NASA([100.00, 914.56],
                     [-1.29517569E+00,  3.36481072E-02, -7.07736026E-05,
                       6.54340620E-08, -2.19421960E-11, -1.93470597E+04,
                       4.37638552E+00]),
                NASA([914.56, 5000.00],
                     [ 2.43526719E+00,  4.64625828E-03, -2.40002857E-06,
                       4.26388441E-10, -2.60638518E-14, -1.94988555E+04,
                      -1.03871217E+01])))

species(name=u'H2OX(9)',
        atoms='H:2 O:1 X:1',
        thermo=(NASA([100.00, 912.85],
                     [-1.34340911E+00,  3.66696506E-02, -7.99484365E-05,
                       7.74130362E-08, -2.68667732E-11, -3.23490301E+04,
                       1.10237941E+01]),
                NASA([912.85, 5000.00],
                     [ 1.12161089E+00,  8.16635457E-03, -4.02355795E-06,
                       7.20415403E-10, -4.51437729E-14, -3.20615323E+04,
                       3.39603482E+00])))

species(name=u'CO2X(12)',
        atoms='X:1 C:1 O:2',
        thermo=(NASA([100.00, 953.59],
                     [ 3.09268931E+00,  5.29278750E-03,  8.99447254E-06,
                      -1.67129326E-08,  7.04909721E-12, -4.52128353E+04,
                      -5.10056355E+00]),
                NASA([953.59, 5000.00],
                     [ 5.99803259E+00,  2.27485222E-03, -6.81092723E-07,
                       1.34432446E-10, -1.11509701E-14, -4.61838262E+04,
                      -2.11649844E+01])))

species(name=u'OCX(14)',
        atoms='X:1 C:1 O:1',
        thermo=(NASA([100.00, 891.33],
                     [-1.38214121E+00,  3.75305409E-02, -8.29758476E-05,
                       8.09701555E-08, -2.85470829E-11, -3.45176032E+04,
                       4.35447670E+00]),
                NASA([891.33, 5000.00],
                     [ 1.38090660E+00,  8.05719010E-03, -4.64308960E-06,
                       8.91170699E-10, -5.90048361E-14, -3.43319289E+04,
                      -4.85318015E+00])))

species(name=u'CX(15)',
        atoms='X:1 C:1',
        thermo=(NASA([100.00, 1401.13],
                     [-6.04856973E-01,  1.10908327E-02, -1.34369594E-05,
                       7.18238215E-09, -1.40685044E-12,  6.24479345E+03,
                       1.48480241E+00]),
                NASA([1401.13, 5000.00],
                     [ 3.08076078E+00, -6.87465602E-04,  5.17589597E-07,
                      -9.73022048E-11,  6.24243898E-15,  5.33531839E+03,
                      -1.70991414E+01])))

species(name=u'CH2X(16)',
        atoms='H:2 C:1 X:1',
        thermo=(NASA([100.00, 1199.87],
                     [-1.02006541E+00,  2.03778501E-02, -2.17290945E-05,
                       1.15868423E-08, -2.38469614E-12, -3.52138326E+02,
                       2.99160259E+00]),
                NASA([1199.87, 5000.00],
                     [ 3.89285815E+00,  3.99891691E-03, -1.25227590E-06,
                       2.09080512E-10, -1.39641772E-14, -1.53105847E+03,
                      -2.16053892E+01])))

species(name=u'CHX(17)',
        atoms='H:1 C:1 X:1',
        thermo=(NASA([100.00, 1596.82],
                     [-9.66375639E-01,  1.63179041E-02, -1.75392379E-05,
                       8.64096778E-09, -1.55501717E-12, -3.35441187E+03,
                       2.54982521E+00]),
                NASA([1596.82, 5000.00],
                     [ 4.21482645E+00,  2.18363593E-04,  5.15672054E-07,
                      -1.20802877E-10,  8.35347061E-15, -4.61123459E+03,
                      -2.36255435E+01])))

species(name=u'CH4X(18)',
        atoms='H:4 C:1 X:1',
        thermo=(NASA([100.00, 886.30],
                     [-1.38683450E+00,  4.00445477E-02, -8.37897687E-05,
                       8.75623020E-08, -3.27862617E-11, -1.09112201E+04,
                       1.78809635E+01]),
                NASA([886.30, 5000.00],
                     [-2.16857761E+00,  1.99495959E-02, -9.80024103E-06,
                       1.83539190E-09, -1.22524105E-13, -9.84481647E+03,
                       2.67923566E+01])))

species(name=u'HO2X(24)',
        atoms='H:1 O:2 X:1',
        thermo=(NASA([100.00, 903.38],
                     [-1.98573698E+00,  5.29622788E-02, -1.14716133E-04,
                       1.09369235E-07, -3.77092814E-11, -1.59756901E+04,
                       9.00942018E+00]),
                NASA([903.38, 5000.00],
                     [ 2.69856046E+00,  9.65199893E-03, -5.32831625E-06,
                       9.89878022E-10, -6.35369578E-14, -1.59010970E+04,
                      -8.01649362E+00])))

species(name=u'CHOX(44)',
        atoms='H:1 C:1 O:1 X:1',
        thermo=(NASA([100.00, 873.23],
                     [-1.43676851E+00,  3.69240048E-02, -7.17890842E-05,
                       6.73513128E-08, -2.35168871E-11, -2.76851391E+04,
                       8.27552319E+00]),
                NASA([873.23, 5000.00],
                     [ 1.83273887E+00,  1.00779869E-02, -5.28539908E-06,
                       1.01353586E-09, -6.85197667E-14, -2.78036033E+04,
                      -4.46356931E+00])))

species(name=u'HOCOX(46)',
        atoms='H:1 C:1 O:2 X:1',
        thermo=(NASA([100.00, 943.40],
                     [ 3.72342676E+00, -4.27962876E-03,  5.09075241E-05,
                      -6.55327269E-08,  2.52476246E-11, -4.42463174E+04,
                      -7.82089046E+00]),
                NASA([943.40, 5000.00],
                     [ 8.73066582E+00,  9.99432781E-04,  3.63341442E-07,
                      -2.85276138E-11, -4.35374935E-15, -4.63707598E+04,
                      -3.79384615E+01])))

species(name=u'COX(51)',
        atoms='X:1 C:1 O:1',
        thermo=(NASA([100.00, 929.00],
                     [ 3.35301802E+00,  2.26104750E-03,  2.26691029E-06,
                      -4.74054399E-09,  2.05871916E-12, -1.10950770E+04,
                      -7.42473433E+00]),
                NASA([929.00, 5000.00],
                     [ 4.10128921E+00,  1.49965828E-03, -4.76449835E-07,
                       7.90367051E-11, -5.45617691E-15, -1.13402792E+04,
                      -1.15510415E+01])))

species(name=u'H2X(52)',
        atoms='H:2 X:1',
        thermo=(NASA([100.00, 911.32],
                     [-1.27858001E+00,  3.68011699E-02, -8.90303024E-05,
                       8.91141217E-08, -3.14515513E-11, -1.33397628E+03,
                       1.13161014E+01]),
                NASA([911.32, 5000.00],
                     [ 6.45667556E-01,  6.69557554E-03, -3.82687179E-06,
                       7.04716463E-10, -4.41017051E-14, -7.85271175E+02,
                       7.14613413E+00])))
